<?xml version="1.0" encoding="UTF-8"?>

<!-- generated on 2024-03-14 21:14:53 by Eclipse SUMO netedit Version 1.19.0
-->

<routes xmlns:xsi="http://www.w3.org/2001/XMLSchema-instance" xsi:noNamespaceSchemaLocation="http://sumo.dlr.de/xsd/routes_file.xsd">
    <!-- Routes -->
    <route id="attidiya_kohuwela" edges="23185859#4 23185859#5 771873306 771873305#2 776125794 776125790 771873304 161783164#0 161783164#3 161783164#4 161783164#5 161783164#6 771870128#0 771870128#1 771870128#2 771870128#4 668513665 981161569#1 -55090838#17 -55090838#16 -55090838#15 -55090838#14 -55090838#13 -55090838#12 -55090838#11 -55090838#9 -55090838#8 -55090838#7 -55090838#6 -55090838#5 -55090838#4 -55090838#3 -55090838#2 -55090838#0"/>
    <route id="dehiwala_kohuwala" edges="171529265#0 776125791 776125790 771873304 161783164#0 161783164#3 161783164#4 161783164#5 161783164#6 771870128#0 771870128#1 771870128#2 771870128#4 668513665 981161569#1 -55090838#17 -55090838#16 -55090838#15 -55090838#14 -55090838#13 -55090838#12 -55090838#11 -55090838#9 -55090838#8 -55090838#7 -55090838#6 -55090838#5 -55090838#4 -55090838#3 -55090838#2 -55090838#0"/>
</routes>
